                                  MODFLOW-2005     
      U.S. GEOLOGICAL SURVEY MODULAR FINITE-DIFFERENCE GROUND-WATER FLOW MODEL
                            VERSION 1.9.00 3/30/2012

 LIST FILE: singlephase.out
                         UNIT  101

 OPENING final_head.dat
 FILE TYPE:DATA   UNIT   11   STATUS:UNKNOWN
 FORMAT:FORMATTED              ACCESS:SEQUENTIAL          
#                                                                                                                                                                                                                                                                                                           
# Global Input Files                                                                                                                                                                                                                                                                                        

 OPENING singlephase.dis
 FILE TYPE:DIS   UNIT  102   STATUS:OLD    
 FORMAT:FORMATTED              ACCESS:SEQUENTIAL          
#                                                                                                                                                                                                                                                                                                           
# Flow Process Input Files                                                                                                                                                                                                                                                                                  

 OPENING singlephase.ba6
 FILE TYPE:BAS6   UNIT  103   STATUS:OLD    
 FORMAT:FORMATTED              ACCESS:SEQUENTIAL          

 OPENING singlephase.bc6
 FILE TYPE:BCF6   UNIT  104   STATUS:OLD    
 FORMAT:FORMATTED              ACCESS:SEQUENTIAL          

 OPENING singlephase.oc
 FILE TYPE:OC   UNIT  105   STATUS:OLD    
 FORMAT:FORMATTED              ACCESS:SEQUENTIAL          

 OPENING singlephase.sip
 FILE TYPE:SIP   UNIT  107   STATUS:OLD    
 FORMAT:FORMATTED              ACCESS:SEQUENTIAL          
#                                                                                                                                                                                                                                                                                                           
# external files                                                                                                                                                                                                                                                                                            

 OPENING boundary.dat
 FILE TYPE:DATA   UNIT   21   STATUS:UNKNOWN
 FORMAT:FORMATTED              ACCESS:SEQUENTIAL          

 OPENING initial_head.dat
 FILE TYPE:DATA   UNIT   22   STATUS:UNKNOWN
 FORMAT:FORMATTED              ACCESS:SEQUENTIAL          

 OPENING transmissivity.dat
 FILE TYPE:DATA   UNIT   23   STATUS:UNKNOWN
 FORMAT:FORMATTED              ACCESS:SEQUENTIAL          

 BAS -- BASIC PACKAGE, VERSION 7, 5/2/2005 INPUT READ FROM UNIT  103
 
 MODFLOW was compiled using mixed precision
 Precision of REAL variables:           6
 Precision of DOUBLE PRECISION variables:          15

 DISCRETIZATION INPUT DATA READ FROM UNIT  102
 # DISCRETIZATION FILE
 # NLAY NROW NCOL NPER TIMEUNITS LENUNITS
    1 LAYERS        51 ROWS        51 COLUMNS
    1 STRESS PERIOD(S) IN SIMULATION
 MODEL TIME UNIT IS DAYS
 MODEL LENGTH UNIT IS METERS
  Confining bed flag for each layer:
   0

                     DELR =   20.0000    

                     DELC =   20.0000    

 TOP ELEVATION OF LAYER 1 =   1.00000    

   MODEL LAYER BOTTOM EL. =   0.00000     FOR LAYER   1


 STRESS PERIOD     LENGTH       TIME STEPS     MULTIPLIER FOR DELT    SS FLAG
 ----------------------------------------------------------------------------
        1         10.00000         50                    1.000         TR

 TRANSIENT SIMULATION



 
 THE FREE FORMAT OPTION HAS BEEN SELECTED



                     BOUNDARY ARRAY FOR LAYER   1
 READING ON UNIT   21 WITH FORMAT: (FREE)              

 AQUIFER HEAD WILL BE SET TO  -999.00     AT ALL NO-FLOW NODES (IBOUND=0).



                       INITIAL HEAD FOR LAYER   1
 READING ON UNIT   22 WITH FORMAT: (FREE)              

 OUTPUT CONTROL IS SPECIFIED ONLY AT TIME STEPS FOR WHICH OUTPUT IS DESIRED
 HEADS WILL BE SAVED WITH FORMAT: (101f16.7)          
 SAVED HEADS WILL BE LABELED
 HEAD PRINT FORMAT CODE IS   0    DRAWDOWN PRINT FORMAT CODE IS   0
 HEADS WILL BE SAVED ON UNIT   11    DRAWDOWNS WILL BE SAVED ON UNIT    0

 BCF -- BLOCK-CENTERED FLOW PACKAGE, VERSION 7, 5/2/2005
         INPUT READ FROM UNIT104
 TRANSIENT SIMULATION
 HEAD AT CELLS THAT CONVERT TO DRY= -0.10000E+31
 WETTING CAPABILITY IS NOT ACTIVE
      LAYER  LAYER-TYPE CODE     INTERBLOCK T
      --------------------------------------------
         1            0          0 -- HARMONIC    

 COLUMN TO ROW ANISOTROPY =   1.00000    

     PRIMARY STORAGE COEF =  1.000000E-04 FOR LAYER   1



               TRANSMIS. ALONG ROWS FOR LAYER   1
 READING ON UNIT   23 WITH FORMAT: (51F16.7)           

 SIP -- STRONGLY-IMPLICIT PROCEDURE SOLUTION PACKAGE
                    VERSION 7, 5/2/2005 INPUT READ FROM UNIT  107
 MAXIMUM OF 200 ITERATIONS ALLOWED FOR CLOSURE
  5 ITERATION PARAMETERS

          SOLUTION BY THE STRONGLY IMPLICIT PROCEDURE
          -------------------------------------------
 MAXIMUM ITERATIONS ALLOWED FOR CLOSURE =      200
                 ACCELERATION PARAMETER =     1.0000    
      HEAD CHANGE CRITERION FOR CLOSURE =    0.10000E-02
      SIP HEAD CHANGE PRINTOUT INTERVAL =        1

     CALCULATE ITERATION PARAMETERS FROM MODEL CALCULATED WSEED
1
                            STRESS PERIOD NO.    1, LENGTH =   10.00000    
                            -----------------------------------------------

                              NUMBER OF TIME STEPS =    50

                               MULTIPLIER FOR DELT =     1.000

                            INITIAL TIME STEP SIZE =  0.2000000    
 
 SOLVING FOR HEAD 

 AVERAGE SEED = 0.00090957
 MINIMUM SEED = 0.00085855

     5 ITERATION PARAMETERS CALCULATED FROM AVERAGE SEED:

  0.000000E+00 0.826336E+00 0.969841E+00 0.994762E+00 0.999090E+00

     8 ITERATIONS FOR TIME STEP   1 IN STRESS PERIOD    1

 MAXIMUM HEAD CHANGE FOR EACH ITERATION:

    HEAD CHANGE   HEAD CHANGE   HEAD CHANGE   HEAD CHANGE   HEAD CHANGE
  LAYER,ROW,COL LAYER,ROW,COL LAYER,ROW,COL LAYER,ROW,COL LAYER,ROW,COL
 ----------------------------------------------------------------------
      1.178        0.5426        0.2844        0.1017        0.1344E-01
  (  1,  1,  2) (  1,  1,  3) (  1,  4,  5) (  1,  1,  8) (  1,  2, 14)
     0.1062E-02    0.1320E-02    0.8106E-03
  (  1,  7,  9) (  1,  8, 10) (  1,  8,  9)


 OUTPUT CONTROL FOR STRESS PERIOD    1   TIME STEP    1
    PRINT HEAD FOR ALL LAYERS
    SAVE HEAD FOR ALL LAYERS
1
              HEAD IN LAYER   1 AT END OF TIME STEP   1 IN STRESS PERIOD    1
  ---------------------------------------------------------------------------

            1           2           3           4           5           6           7           8           9          10
           11          12          13          14          15          16          17          18          19          20
           21          22          23          24          25          26          27          28          29          30
           31          32          33          34          35          36          37          38          39          40
           41          42          43          44          45          46          47          48          49          50
           51
 ........................................................................................................................
   1    202.0       201.6       201.2       201.0       200.8       200.6       200.5       200.4       200.3       200.2    
        200.2       200.1       200.1       200.1       200.1       200.1       200.0       200.0       200.0       200.0    
        200.0       200.0       200.0       200.0       200.0       200.0       200.0       200.0       200.0       200.0    
        200.0       200.0       200.0       200.0       200.0       200.0       200.0       200.0       200.0       200.0    
        200.0       200.0       200.0       200.0       200.0       200.0       200.0       200.0       200.0       200.0    
        200.0    
   2    202.0       201.6       201.2       201.0       200.8       200.6       200.5       200.4       200.3       200.2    
        200.2       200.1       200.1       200.1       200.1       200.1       200.0       200.0       200.0       200.0    
        200.0       200.0       200.0       200.0       200.0       200.0       200.0       200.0       200.0       200.0    
        200.0       200.0       200.0       200.0       200.0       200.0       200.0       200.0       200.0       200.0    
        200.0       200.0       200.0       200.0       200.0       200.0       200.0       200.0       200.0       200.0    
        200.0    
   3    202.0       201.6       201.2       201.0       200.8       200.6       200.5       200.4       200.3       200.2    
        200.2       200.1       200.1       200.1       200.1       200.1       200.0       200.0       200.0       200.0    
        200.0       200.0       200.0       200.0       200.0       200.0       200.0       200.0       200.0       200.0    
        200.0       200.0       200.0       200.0       200.0       200.0       200.0       200.0       200.0       200.0    
        200.0       200.0       200.0       200.0       200.0       200.0       200.0       200.0       200.0       200.0    
        200.0    
   4    202.0       201.6       201.2       201.0       200.8       200.6       200.5       200.4       200.3       200.2    
        200.2       200.1       200.1       200.1       200.1       200.1       200.0       200.0       200.0       200.0    
        200.0       200.0       200.0       200.0       200.0       200.0       200.0       200.0       200.0       200.0    
        200.0       200.0       200.0       200.0       200.0       200.0       200.0       200.0       200.0       200.0    
        200.0       200.0       200.0       200.0       200.0       200.0       200.0       200.0       200.0       200.0    
        200.0    
   5    202.0       201.6       201.2       201.0       200.7       200.6       200.5       200.3       200.3       200.2    
        200.2       200.1       200.1       200.1       200.1       200.1       200.0       200.0       200.0       200.0    
        200.0       200.0       200.0       200.0       200.0       200.0       200.0       200.0       200.0       200.0    
        200.0       200.0       200.0       200.0       200.0       200.0       200.0       200.0       200.0       200.0    
        200.0       200.0       200.0       200.0       200.0       200.0       200.0       200.0       200.0       200.0    
        200.0    
   6    202.0       201.6       201.2       200.9       200.7       200.6       200.4       200.3       200.3       200.2    
        200.2       200.1       200.1       200.1       200.1       200.0       200.0       200.0       200.0       200.0    
        200.0       200.0       200.0       200.0       200.0       200.0       200.0       200.0       200.0       200.0    
        200.0       200.0       200.0       200.0       200.0       200.0       200.0       200.0       200.0       200.0    
        200.0       200.0       200.0       200.0       200.0       200.0       200.0       200.0       200.0       200.0    
        200.0    
   7    202.0       201.5       201.2       200.9       200.7       200.5       200.4       200.3       200.2       200.2    
        200.1       200.1       200.1       200.1       200.1       200.0       200.0       200.0       200.0       200.0    
        200.0       200.0       200.0       200.0       200.0       200.0       200.0       200.0       200.0       200.0    
        200.0       200.0       200.0       200.0       200.0       200.0       200.0       200.0       200.0       200.0    
        200.0       200.0       200.0       200.0       200.0       200.0       200.0       200.0       200.0       200.0    
        200.0    
   8    202.0       201.5       201.2       200.9       200.7       200.5       200.4       200.3       200.2       200.2    
        200.1       200.1       200.1       200.1       200.1       200.0       200.0       200.0       200.0       200.0    
        200.0       200.0       200.0       200.0       200.0       200.0       200.0       200.0       200.0       200.0    
        200.0       200.0       200.0       200.0       200.0       200.0       200.0       200.0       200.0       200.0    
        200.0       200.0       200.0       200.0       200.0       200.0       200.0       200.0       200.0       200.0    
        200.0    
   9    202.0       201.5       201.2       200.9       200.7       200.5       200.4       200.3       200.2       200.2    
        200.1       200.1       200.1       200.1       200.0       200.0       200.0       200.0       200.0       200.0    
        200.0       200.0       200.0       200.0       200.0       200.0       200.0       200.0       200.0       200.0    
        200.0       200.0       200.0       200.0       200.0       200.0       200.0       200.0       200.0       200.0    
        200.0       200.0       200.0       200.0       200.0       200.0       200.0       200.0       200.0       200.0    
        200.0    
  10    202.0       201.5       201.1       200.9       200.6       200.5       200.4       200.3       200.2       200.2    
        200.1       200.1       200.1       200.1       200.0       200.0       200.0       200.0       200.0       200.0    
        200.0       200.0       200.0       200.0       200.0       200.0       200.0       200.0       200.0       200.0    
        200.0       200.0       200.0       200.0       200.0       200.0       200.0       200.0       200.0       200.0    
        200.0       200.0       200.0       200.0       200.0       200.0       200.0       200.0       200.0       200.0    
        200.0    
  11    202.0       201.5       201.1       200.8       200.6       200.5       200.3       200.3       200.2       200.1    
        200.1       200.1       200.1       200.1       200.0       200.0       200.0       200.0       200.0       200.0    
        200.0       200.0       200.0       200.0       200.0       200.0       200.0       200.0       200.0       200.0    
        200.0       200.0       200.0       200.0       200.0       200.0       200.0       200.0       200.0       200.0    
        200.0       200.0       200.0       200.0       200.0       200.0       200.0       200.0       200.0       200.0    
        200.0    
  12    202.0       201.5       201.1       200.8       200.6       200.5       200.3       200.2       200.2       200.1    
        200.1       200.1       200.1       200.0       200.0       200.0       200.0       200.0       200.0       200.0    
        200.0       200.0       200.0       200.0       200.0       200.0       200.0       200.0       200.0       200.0    
        200.0       200.0       200.0       200.0       200.0       200.0       200.0       200.0       200.0       200.0    
        200.0       200.0       200.0       200.0       200.0       200.0       200.0       200.0       200.0       200.0    
        200.0    
  13    202.0       201.5       201.1       200.8       200.6       200.4       200.3       200.2       200.2       200.1    
        200.1       200.1       200.1       200.0       200.0       200.0       200.0       200.0       200.0       200.0    
        200.0       200.0       200.0       200.0       200.0       200.0       200.0       200.0       200.0       200.0    
        200.0       200.0       200.0       200.0       200.0       200.0       200.0       200.0       200.0       200.0    
        200.0       200.0       200.0       200.0       200.0       200.0       200.0       200.0       200.0       200.0    
        200.0    
  14    202.0       201.5       201.1       200.8       200.6       200.4       200.3       200.2       200.2       200.1    
        200.1       200.1       200.1       200.0       200.0       200.0       200.0       200.0       200.0       200.0    
        200.0       200.0       200.0       200.0       200.0       200.0       200.0       200.0       200.0       200.0    
        200.0       200.0       200.0       200.0       200.0       200.0       200.0       200.0       200.0       200.0    
        200.0       200.0       200.0       200.0       200.0       200.0       200.0       200.0       200.0       200.0    
        200.0    
  15    202.0       201.5       201.1       200.8       200.6       200.4       200.3       200.2       200.2       200.1    
        200.1       200.1       200.1       200.0       200.0       200.0       200.0       200.0       200.0       200.0    
        200.0       200.0       200.0       200.0       200.0       200.0       200.0       200.0       200.0       200.0    
        200.0       200.0       200.0       200.0       200.0       200.0       200.0       200.0       200.0       200.0    
        200.0       200.0       200.0       200.0       200.0       200.0       200.0       200.0       200.0       200.0    
        200.0    
  16    202.0       201.5       201.1       200.8       200.6       200.4       200.3       200.2       200.2       200.1    
        200.1       200.1       200.1       200.0       200.0       200.0       200.0       200.0       200.0       200.0    
        200.0       200.0       200.0       200.0       200.0       200.0       200.0       200.0       200.0       200.0    
        200.0       200.0       200.0       200.0       200.0       200.0       200.0       200.0       200.0       200.0    
        200.0       200.0       200.0       200.0       200.0       200.0       200.0       200.0       200.0       200.0    
        200.0    
  17    202.0       201.5       201.1       200.8       200.6       200.4       200.3       200.2       200.2       200.1    
        200.1       200.1       200.0       200.0       200.0       200.0       200.0       200.0       200.0       200.0    
        200.0       200.0       200.0       200.0       200.0       200.0       200.0       200.0       200.0       200.0    
        200.0       200.0       200.0       200.0       200.0       200.0       200.0       200.0       200.0       200.0    
        200.0       200.0       200.0       200.0       200.0       200.0       200.0       200.0       200.0       200.0    
        200.0    
  18    202.0       201.5       201.1       200.8       200.6       200.4       200.3       200.2       200.2       200.1    
        200.1       200.1       200.0       200.0       200.0       200.0       200.0       200.0       200.0       200.0    
        200.0       200.0       200.0       200.0       200.0       200.0       200.0       200.0       200.0       200.0    
        200.0       200.0       200.0       200.0       200.0       200.0       200.0       200.0       200.0       200.0    
        200.0       200.0       200.0       200.0       200.0       200.0       200.0       200.0       200.0       200.0    
        200.0    
  19    202.0       201.5       201.1       200.8       200.6       200.4       200.3       200.2       200.1       200.1    
        200.1       200.1       200.0       200.0       200.0       200.0       200.0       200.0       200.0       200.0    
        200.0       200.0       200.0       200.0       200.0       200.0       200.0       200.0       200.0       200.0    
        200.0       200.0       200.0       200.0       200.0       200.0       200.0       200.0       200.0       200.0    
        200.0       200.0       200.0       200.0       200.0       200.0       200.0       200.0       200.0       200.0    
        200.0    
  20    202.0       201.4       201.0       200.8       200.5       200.4       200.3       200.2       200.1       200.1    
        200.1       200.1       200.0       200.0       200.0       200.0       200.0       200.0       200.0       200.0    
        200.0       200.0       200.0       200.0       200.0       200.0       200.0       200.0       200.0       200.0    
        200.0       200.0       200.0       200.0       200.0       200.0       200.0       200.0       200.0       200.0    
        200.0       200.0       200.0       200.0       200.0       200.0       200.0       200.0       200.0       200.0    
        200.0    
  21    202.0       201.4       201.0       200.7       200.5       200.4       200.3       200.2       200.1       200.1    
        200.1       200.1       200.0       200.0       200.0       200.0       200.0       200.0       200.0       200.0    
        200.0       200.0       200.0       200.0       200.0       200.0       200.0       200.0       200.0       200.0    
        200.0       200.0       200.0       200.0       200.0       200.0       200.0       200.0       200.0       200.0    
        200.0       200.0       200.0       200.0       200.0       200.0       200.0       200.0       200.0       200.0    
        200.0    
  22    202.0       201.4       201.0       200.7       200.5       200.4       200.3       200.2       200.1       200.1    
        200.1       200.0       200.0       200.0       200.0       200.0       200.0       200.0       200.0       200.0    
        200.0       200.0       200.0       200.0       200.0       200.0       200.0       200.0       200.0       200.0    
        200.0       200.0       200.0       200.0       200.0       200.0       200.0       200.0       200.0       200.0    
        200.0       200.0       200.0       200.0       200.0       200.0       200.0       200.0       200.0       200.0    
        200.0    
  23    202.0       201.4       201.0       200.7       200.5       200.3       200.2       200.2       200.1       200.1    
        200.1       200.0       200.0       200.0       200.0       200.0       200.0       200.0       200.0       200.0    
        200.0       200.0       200.0       200.0       200.0       200.0       200.0       200.0       200.0       200.0    
        200.0       200.0       200.0       200.0       200.0       200.0       200.0       200.0       200.0       200.0    
        200.0       200.0       200.0       200.0       200.0       200.0       200.0       200.0       200.0       200.0    
        200.0    
  24    202.0       201.4       201.0       200.7       200.5       200.3       200.2       200.2       200.1       200.1    
        200.1       200.0       200.0       200.0       200.0       200.0       200.0       200.0       200.0       200.0    
        200.0       200.0       200.0       200.0       200.0       200.0       200.0       200.0       200.0       200.0    
        200.0       200.0       200.0       200.0       200.0       200.0       200.0       200.0       200.0       200.0    
        200.0       200.0       200.0       200.0       200.0       200.0       200.0       200.0       200.0       200.0    
        200.0    
  25    202.0       201.4       200.9       200.6       200.4       200.3       200.2       200.1       200.1       200.1    
        200.1       200.0       200.0       200.0       200.0       200.0       200.0       200.0       200.0       200.0    
        200.0       200.0       200.0       200.0       200.0       200.0       200.0       200.0       200.0       200.0    
        200.0       200.0       200.0       200.0       200.0       200.0       200.0       200.0       200.0       200.0    
        200.0       200.0       200.0       200.0       200.0       200.0       200.0       200.0       200.0       200.0    
        200.0    
  26    202.0       201.4       200.9       200.6       200.4       200.3       200.2       200.1       200.1       200.1    
        200.0       200.0       200.0       200.0       200.0       200.0       200.0       200.0       200.0       200.0    
        200.0       200.0       200.0       200.0       200.0       200.0       200.0       200.0       200.0       200.0    
        200.0       200.0       200.0       200.0       200.0       200.0       200.0       200.0       200.0       200.0    
        200.0       200.0       200.0       200.0       200.0       200.0       200.0       200.0       200.0       200.0    
        200.0    
  27    202.0       201.3       200.9       200.6       200.4       200.3       200.2       200.1       200.1       200.1    
        200.0       200.0       200.0       200.0       200.0       200.0       200.0       200.0       200.0       200.0    
        200.0       200.0       200.0       200.0       200.0       200.0       200.0       200.0       200.0       200.0    
        200.0       200.0       200.0       200.0       200.0       200.0       200.0       200.0       200.0       200.0    
        200.0       200.0       200.0       200.0       200.0       200.0       200.0       200.0       200.0       200.0    
        200.0    
  28    202.0       201.3       200.9       200.6       200.4       200.3       200.2       200.1       200.1       200.1    
        200.0       200.0       200.0       200.0       200.0       200.0       200.0       200.0       200.0       200.0    
        200.0       200.0       200.0       200.0       200.0       200.0       200.0       200.0       200.0       200.0    
        200.0       200.0       200.0       200.0       200.0       200.0       200.0       200.0       200.0       200.0    
        200.0       200.0       200.0       200.0       200.0       200.0       200.0       200.0       200.0       200.0    
        200.0    
  29    202.0       201.3       200.9       200.6       200.4       200.2       200.2       200.1       200.1       200.0    
        200.0       200.0       200.0       200.0       200.0       200.0       200.0       200.0       200.0       200.0    
        200.0       200.0       200.0       200.0       200.0       200.0       200.0       200.0       200.0       200.0    
        200.0       200.0       200.0       200.0       200.0       200.0       200.0       200.0       200.0       200.0    
        200.0       200.0       200.0       200.0       200.0       200.0       200.0       200.0       200.0       200.0    
        200.0    
  30    202.0       201.3       200.9       200.6       200.4       200.2       200.2       200.1       200.1       200.0    
        200.0       200.0       200.0       200.0       200.0       200.0       200.0       200.0       200.0       200.0    
        200.0       200.0       200.0       200.0       200.0       200.0       200.0       200.0       200.0       200.0    
        200.0       200.0       200.0       200.0       200.0       200.0       200.0       200.0       200.0       200.0    
        200.0       200.0       200.0       200.0       200.0       200.0       200.0       200.0       200.0       200.0    
        200.0    
  31    202.0       201.3       200.9       200.6       200.4       200.2       200.2       200.1       200.1       200.0    
        200.0       200.0       200.0       200.0       200.0       200.0       200.0       200.0       200.0       200.0    
        200.0       200.0       200.0       200.0       200.0       200.0       200.0       200.0       200.0       200.0    
        200.0       200.0       200.0       200.0       200.0       200.0       200.0       200.0       200.0       200.0    
        200.0       200.0       200.0       200.0       200.0       200.0       200.0       200.0       200.0       200.0    
        200.0    
  32    202.0       201.3       200.9       200.6       200.4       200.2       200.2       200.1       200.1       200.0    
        200.0       200.0       200.0       200.0       200.0       200.0       200.0       200.0       200.0       200.0    
        200.0       200.0       200.0       200.0       200.0       200.0       200.0       200.0       200.0       200.0    
        200.0       200.0       200.0       200.0       200.0       200.0       200.0       200.0       200.0       200.0    
        200.0       200.0       200.0       200.0       200.0       200.0       200.0       200.0       200.0       200.0    
        200.0    
  33    202.0       201.3       200.9       200.6       200.4       200.3       200.2       200.1       200.1       200.1    
        200.0       200.0       200.0       200.0       200.0       200.0       200.0       200.0       200.0       200.0    
        200.0       200.0       200.0       200.0       200.0       200.0       200.0       200.0       200.0       200.0    
        200.0       200.0       200.0       200.0       200.0       200.0       200.0       200.0       200.0       200.0    
        200.0       200.0       200.0       200.0       200.0       200.0       200.0       200.0       200.0       200.0    
        200.0    
  34    202.0       201.4       200.9       200.6       200.4       200.3       200.2       200.1       200.1       200.1    
        200.0       200.0       200.0       200.0       200.0       200.0       200.0       200.0       200.0       200.0    
        200.0       200.0       200.0       200.0       200.0       200.0       200.0       200.0       200.0       200.0    
        200.0       200.0       200.0       200.0       200.0       200.0       200.0       200.0       200.0       200.0    
        200.0       200.0       200.0       200.0       200.0       200.0       200.0       200.0       200.0       200.0    
        200.0    
  35    202.0       201.4       200.9       200.7       200.4       200.3       200.2       200.1       200.1       200.1    
        200.0       200.0       200.0       200.0       200.0       200.0       200.0       200.0       200.0       200.0    
        200.0       200.0       200.0       200.0       200.0       200.0       200.0       200.0       200.0       200.0    
        200.0       200.0       200.0       200.0       200.0       200.0       200.0       200.0       200.0       200.0    
        200.0       200.0       200.0       200.0       200.0       200.0       200.0       200.0       200.0       200.0    
        200.0    
  36    202.0       201.4       201.0       200.7       200.5       200.3       200.2       200.2       200.1       200.1    
        200.1       200.0       200.0       200.0       200.0       200.0       200.0       200.0       200.0       200.0    
        200.0       200.0       200.0       200.0       200.0       200.0       200.0       200.0       200.0       200.0    
        200.0       200.0       200.0       200.0       200.0       200.0       200.0       200.0       200.0       200.0    
        200.0       200.0       200.0       200.0       200.0       200.0       200.0       200.0       200.0       200.0    
        200.0    
  37    202.0       201.4       201.0       200.7       200.5       200.3       200.2       200.2       200.1       200.1    
        200.1       200.0       200.0       200.0       200.0       200.0       200.0       200.0       200.0       200.0    
        200.0       200.0       200.0       200.0       200.0       200.0       200.0       200.0       200.0       200.0    
        200.0       200.0       200.0       200.0       200.0       200.0       200.0       200.0       200.0       200.0    
        200.0       200.0       200.0       200.0       200.0       200.0       200.0       200.0       200.0       200.0    
        200.0    
  38    202.0       201.4       201.0       200.7       200.5       200.4       200.2       200.2       200.1       200.1    
        200.1       200.0       200.0       200.0       200.0       200.0       200.0       200.0       200.0       200.0    
        200.0       200.0       200.0       200.0       200.0       200.0       200.0       200.0       200.0       200.0    
        200.0       200.0       200.0       200.0       200.0       200.0       200.0       200.0       200.0       200.0    
        200.0       200.0       200.0       200.0       200.0       200.0       200.0       200.0       200.0       200.0    
        200.0    
  39    202.0       201.4       201.0       200.7       200.5       200.4       200.3       200.2       200.1       200.1    
        200.1       200.0       200.0       200.0       200.0       200.0       200.0       200.0       200.0       200.0    
        200.0       200.0       200.0       200.0       200.0       200.0       200.0       200.0       200.0       200.0    
        200.0       200.0       200.0       200.0       200.0       200.0       200.0       200.0       200.0       200.0    
        200.0       200.0       200.0       200.0       200.0       200.0       200.0       200.0       200.0       200.0    
        200.0    
  40    202.0       201.4       201.0       200.7       200.5       200.4       200.3       200.2       200.1       200.1    
        200.1       200.0       200.0       200.0       200.0       200.0       200.0       200.0       200.0       200.0    
        200.0       200.0       200.0       200.0       200.0       200.0       200.0       200.0       200.0       200.0    
        200.0       200.0       200.0       200.0       200.0       200.0       200.0       200.0       200.0       200.0    
        200.0       200.0       200.0       200.0       200.0       200.0       200.0       200.0       200.0       200.0    
        200.0    
  41    202.0       201.4       201.0       200.7       200.5       200.4       200.3       200.2       200.1       200.1    
        200.1       200.0       200.0       200.0       200.0       200.0       200.0       200.0       200.0       200.0    
        200.0       200.0       200.0       200.0       200.0       200.0       200.0       200.0       200.0       200.0    
        200.0       200.0       200.0       200.0       200.0       200.0       200.0       200.0       200.0       200.0    
        200.0       200.0       200.0       200.0       200.0       200.0       200.0       200.0       200.0       200.0    
        200.0    
  42    202.0       201.4       201.0       200.7       200.5       200.4       200.3       200.2       200.1       200.1    
        200.1       200.0       200.0       200.0       200.0       200.0       200.0       200.0       200.0       200.0    
        200.0       200.0       200.0       200.0       200.0       200.0       200.0       200.0       200.0       200.0    
        200.0       200.0       200.0       200.0       200.0       200.0       200.0       200.0       200.0       200.0    
        200.0       200.0       200.0       200.0       200.0       200.0       200.0       200.0       200.0       200.0    
        200.0    
  43    202.0       201.4       201.0       200.7       200.5       200.3       200.2       200.2       200.1       200.1    
        200.1       200.0       200.0       200.0       200.0       200.0       200.0       200.0       200.0       200.0    
        200.0       200.0       200.0       200.0       200.0       200.0       200.0       200.0       200.0       200.0    
        200.0       200.0       200.0       200.0       200.0       200.0       200.0       200.0       200.0       200.0    
        200.0       200.0       200.0       200.0       200.0       200.0       200.0       200.0       200.0       200.0    
        200.0    
  44    202.0       201.4       201.0       200.7       200.5       200.3       200.2       200.2       200.1       200.1    
        200.1       200.0       200.0       200.0       200.0       200.0       200.0       200.0       200.0       200.0    
        200.0       200.0       200.0       200.0       200.0       200.0       200.0       200.0       200.0       200.0    
        200.0       200.0       200.0       200.0       200.0       200.0       200.0       200.0       200.0       200.0    
        200.0       200.0       200.0       200.0       200.0       200.0       200.0       200.0       200.0       200.0    
        200.0    
  45    202.0       201.4       201.0       200.7       200.5       200.3       200.2       200.1       200.1       200.1    
        200.0       200.0       200.0       200.0       200.0       200.0       200.0       200.0       200.0       200.0    
        200.0       200.0       200.0       200.0       200.0       200.0       200.0       200.0       200.0       200.0    
        200.0       200.0       200.0       200.0       200.0       200.0       200.0       200.0       200.0       200.0    
        200.0       200.0       200.0       200.0       200.0       200.0       200.0       200.0       200.0       200.0    
        200.0    
  46    202.0       201.4       200.9       200.6       200.4       200.3       200.2       200.1       200.1       200.1    
        200.0       200.0       200.0       200.0       200.0       200.0       200.0       200.0       200.0       200.0    
        200.0       200.0       200.0       200.0       200.0       200.0       200.0       200.0       200.0       200.0    
        200.0       200.0       200.0       200.0       200.0       200.0       200.0       200.0       200.0       200.0    
        200.0       200.0       200.0       200.0       200.0       200.0       200.0       200.0       200.0       200.0    
        200.0    
  47    202.0       201.3       200.9       200.6       200.4       200.3       200.2       200.1       200.1       200.1    
        200.0       200.0       200.0       200.0       200.0       200.0       200.0       200.0       200.0       200.0    
        200.0       200.0       200.0       200.0       200.0       200.0       200.0       200.0       200.0       200.0    
        200.0       200.0       200.0       200.0       200.0       200.0       200.0       200.0       200.0       200.0    
        200.0       200.0       200.0       200.0       200.0       200.0       200.0       200.0       200.0       200.0    
        200.0    
  48    202.0       201.3       200.9       200.6       200.4       200.2       200.2       200.1       200.1       200.0    
        200.0       200.0       200.0       200.0       200.0       200.0       200.0       200.0       200.0       200.0    
        200.0       200.0       200.0       200.0       200.0       200.0       200.0       200.0       200.0       200.0    
        200.0       200.0       200.0       200.0       200.0       200.0       200.0       200.0       200.0       200.0    
        200.0       200.0       200.0       200.0       200.0       200.0       200.0       200.0       200.0       200.0    
        200.0    
  49    202.0       201.3       200.8       200.5       200.4       200.2       200.1       200.1       200.1       200.0    
        200.0       200.0       200.0       200.0       200.0       200.0       200.0       200.0       200.0       200.0    
        200.0       200.0       200.0       200.0       200.0       200.0       200.0       200.0       200.0       200.0    
        200.0       200.0       200.0       200.0       200.0       200.0       200.0       200.0       200.0       200.0    
        200.0       200.0       200.0       200.0       200.0       200.0       200.0       200.0       200.0       200.0    
        200.0    
  50    202.0       201.3       200.8       200.5       200.3       200.2       200.1       200.1       200.1       200.0    
        200.0       200.0       200.0       200.0       200.0       200.0       200.0       200.0       200.0       200.0    
        200.0       200.0       200.0       200.0       200.0       200.0       200.0       200.0       200.0       200.0    
        200.0       200.0       200.0       200.0       200.0       200.0       200.0       200.0       200.0       200.0    
        200.0       200.0       200.0       200.0       200.0       200.0       200.0       200.0       200.0       200.0    
        200.0    
  51    202.0       201.3       200.8       200.5       200.3       200.2       200.1       200.1       200.1       200.0    
        200.0       200.0       200.0       200.0       200.0       200.0       200.0       200.0       200.0       200.0    
        200.0       200.0       200.0       200.0       200.0       200.0       200.0       200.0       200.0       200.0    
        200.0       200.0       200.0       200.0       200.0       200.0       200.0       200.0       200.0       200.0    
        200.0       200.0       200.0       200.0       200.0       200.0       200.0       200.0       200.0       200.0    
        200.0    

 HEAD WILL BE SAVED ON UNIT   11 AT END OF TIME STEP    1, STRESS PERIOD    1



         TIME SUMMARY AT END OF TIME STEP    1 IN STRESS PERIOD    1
                    SECONDS     MINUTES      HOURS       DAYS        YEARS
                    -----------------------------------------------------------
   TIME STEP LENGTH  17280.      288.00      4.8000     0.20000     5.47570E-04
 STRESS PERIOD TIME  17280.      288.00      4.8000     0.20000     5.47570E-04
         TOTAL TIME  17280.      288.00      4.8000     0.20000     5.47570E-04
1
 
 SOLVING FOR HEAD 
     6 ITERATIONS FOR TIME STEP   2 IN STRESS PERIOD    1

 MAXIMUM HEAD CHANGE FOR EACH ITERATION:

    HEAD CHANGE   HEAD CHANGE   HEAD CHANGE   HEAD CHANGE   HEAD CHANGE
  LAYER,ROW,COL LAYER,ROW,COL LAYER,ROW,COL LAYER,ROW,COL LAYER,ROW,COL
 ----------------------------------------------------------------------
     0.2335        0.1541        0.1263        0.5861E-01    0.5540E-02
  (  1, 51,  3) (  1, 47,  4) (  1,  4,  6) (  1,  1,  9) (  1,  3, 16)
    -0.2937E-03
  (  1,  7,  5)


 OUTPUT CONTROL FOR STRESS PERIOD    1   TIME STEP    2
    PRINT HEAD FOR ALL LAYERS
    SAVE HEAD FOR ALL LAYERS
1
              HEAD IN LAYER   1 AT END OF TIME STEP   2 IN STRESS PERIOD    1
  ---------------------------------------------------------------------------

            1           2           3           4           5           6           7           8           9          10
           11          12          13          14          15          16          17          18          19          20
           21          22          23          24          25          26          27          28          29          30
           31          32          33          34          35          36          37          38          39          40
           41          42          43          44          45          46          47          48          49          50
           51
 ........................................................................................................................
   1    202.0       201.8       201.5       201.3       201.1       201.0       200.8       200.7       200.6       200.5    
        200.4       200.3       200.3       200.2       200.2       200.2       200.1       200.1       200.1       200.1    
        200.1       200.0       200.0       200.0       200.0       200.0       200.0       200.0       200.0       200.0    
        200.0       200.0       200.0       200.0       200.0       200.0       200.0       200.0       200.0       200.0    
        200.0       200.0       200.0       200.0       200.0       200.0       200.0       200.0       200.0       200.0    
        200.0    
   2    202.0       201.8       201.5       201.3       201.1       201.0       200.8       200.7       200.6       200.5    
        200.4       200.3       200.3       200.2       200.2       200.2       200.1       200.1       200.1       200.1    
        200.1       200.0       200.0       200.0       200.0       200.0       200.0       200.0       200.0       200.0    
        200.0       200.0       200.0       200.0       200.0       200.0       200.0       200.0       200.0       200.0    
        200.0       200.0       200.0       200.0       200.0       200.0       200.0       200.0       200.0       200.0    
        200.0    
   3    202.0       201.8       201.5       201.3       201.1       201.0       200.8       200.7       200.5       200.5    
        200.4       200.3       200.3       200.2       200.2       200.2       200.1       200.1       200.1       200.1    
        200.1       200.0       200.0       200.0       200.0       200.0       200.0       200.0       200.0       200.0    
        200.0       200.0       200.0       200.0       200.0       200.0       200.0       200.0       200.0       200.0    
        200.0       200.0       200.0       200.0       200.0       200.0       200.0       200.0       200.0       200.0    
        200.0    
   4    202.0       201.8       201.5       201.3       201.1       200.9       200.8       200.7       200.5       200.4    
        200.4       200.3       200.3       200.2       200.2       200.1       200.1       200.1       200.1       200.1    
        200.1       200.0       200.0       200.0       200.0       200.0       200.0       200.0       200.0       200.0    
        200.0       200.0       200.0       200.0       200.0       200.0       200.0       200.0       200.0       200.0    
        200.0       200.0       200.0       200.0       200.0       200.0       200.0       200.0       200.0       200.0    
        200.0    
   5    202.0       201.8       201.5       201.3       201.1       200.9       200.8       200.6       200.5       200.4    
        200.4       200.3       200.2       200.2       200.2       200.1       200.1       200.1       200.1       200.1    
        200.0       200.0       200.0       200.0       200.0       200.0       200.0       200.0       200.0       200.0    
        200.0       200.0       200.0       200.0       200.0       200.0       200.0       200.0       200.0       200.0    
        200.0       200.0       200.0       200.0       200.0       200.0       200.0       200.0       200.0       200.0    
        200.0    
   6    202.0       201.7       201.5       201.3       201.1       200.9       200.8       200.6       200.5       200.4    
        200.3       200.3       200.2       200.2       200.2       200.1       200.1       200.1       200.1       200.1    
        200.0       200.0       200.0       200.0       200.0       200.0       200.0       200.0       200.0       200.0    
        200.0       200.0       200.0       200.0       200.0       200.0       200.0       200.0       200.0       200.0    
        200.0       200.0       200.0       200.0       200.0       200.0       200.0       200.0       200.0       200.0    
        200.0    
   7    202.0       201.7       201.5       201.3       201.1       200.9       200.7       200.6       200.5       200.4    
        200.3       200.3       200.2       200.2       200.2       200.1       200.1       200.1       200.1       200.1    
        200.0       200.0       200.0       200.0       200.0       200.0       200.0       200.0       200.0       200.0    
        200.0       200.0       200.0       200.0       200.0       200.0       200.0       200.0       200.0       200.0    
        200.0       200.0       200.0       200.0       200.0       200.0       200.0       200.0       200.0       200.0    
        200.0    
   8    202.0       201.7       201.5       201.3       201.1       200.9       200.7       200.6       200.5       200.4    
        200.3       200.3       200.2       200.2       200.1       200.1       200.1       200.1       200.1       200.1    
        200.0       200.0       200.0       200.0       200.0       200.0       200.0       200.0       200.0       200.0    
        200.0       200.0       200.0       200.0       200.0       200.0       200.0       200.0       200.0       200.0    
        200.0       200.0       200.0       200.0       200.0       200.0       200.0       200.0       200.0       200.0    
        200.0    
   9    202.0       201.7       201.5       201.2       201.0       200.9       200.7       200.6       200.5       200.4    
        200.3       200.2       200.2       200.2       200.1       200.1       200.1       200.1       200.1       200.1    
        200.0       200.0       200.0       200.0       200.0       200.0       200.0       200.0       200.0       200.0    
        200.0       200.0       200.0       200.0       200.0       200.0       200.0       200.0       200.0       200.0    
        200.0       200.0       200.0       200.0       200.0       200.0       200.0       200.0       200.0       200.0    
        200.0    
  10    202.0       201.7       201.5       201.2       201.0       200.8       200.7       200.5       200.4       200.3    
        200.3       200.2       200.2       200.2       200.1       200.1       200.1       200.1       200.1       200.0    
        200.0       200.0       200.0       200.0       200.0       200.0       200.0       200.0       200.0       200.0    
        200.0       200.0       200.0       200.0       200.0       200.0       200.0       200.0       200.0       200.0    
        200.0       200.0       200.0       200.0       200.0       200.0       200.0       200.0       200.0       200.0    
        200.0    
  11    202.0       201.7       201.4       201.2       201.0       200.8       200.6       200.5       200.4       200.3    
        200.3       200.2       200.2       200.1       200.1       200.1       200.1       200.1       200.1       200.0    
        200.0       200.0       200.0       200.0       200.0       200.0       200.0       200.0       200.0       200.0    
        200.0       200.0       200.0       200.0       200.0       200.0       200.0       200.0       200.0       200.0    
        200.0       200.0       200.0       200.0       200.0       200.0       200.0       200.0       200.0       200.0    
        200.0    
  12    202.0       201.7       201.4       201.2       201.0       200.8       200.6       200.5       200.4       200.3    
        200.3       200.2       200.2       200.1       200.1       200.1       200.1       200.1       200.1       200.0    
        200.0       200.0       200.0       200.0       200.0       200.0       200.0       200.0       200.0       200.0    
        200.0       200.0       200.0       200.0       200.0       200.0       200.0       200.0       200.0       200.0    
        200.0       200.0       200.0       200.0       200.0       200.0       200.0       200.0       200.0       200.0    
        200.0    
  13    202.0       201.7       201.4       201.2       201.0       200.8       200.6       200.5       200.4       200.3    
        200.2       200.2       200.2       200.1       200.1       200.1       200.1       200.1       200.1       200.0    
        200.0       200.0       200.0       200.0       200.0       200.0       200.0       200.0       200.0       200.0    
        200.0       200.0       200.0       200.0       200.0       200.0       200.0       200.0       200.0       200.0    
        200.0       200.0       200.0       200.0       200.0       200.0       200.0       200.0       200.0       200.0    
        200.0    
  14    202.0       201.7       201.4       201.2       200.9       200.8       200.6       200.5       200.4       200.3    
        200.2       200.2       200.2       200.1       200.1       200.1       200.1       200.1       200.1       200.0    
        200.0       200.0       200.0       200.0       200.0       200.0       200.0       200.0       200.0       200.0    
        200.0       200.0       200.0       200.0       200.0       200.0       200.0       200.0       200.0       200.0    
        200.0       200.0       200.0       200.0       200.0       200.0       200.0       200.0       200.0       200.0    
        200.0    
  15    202.0       201.7       201.4       201.2       200.9       200.7       200.6       200.5       200.4       200.3    
        200.2       200.2       200.1       200.1       200.1       200.1       200.1       200.1       200.1       200.0    
        200.0       200.0       200.0       200.0       200.0       200.0       200.0       200.0       200.0       200.0    
        200.0       200.0       200.0       200.0       200.0       200.0       200.0       200.0       200.0       200.0    
        200.0       200.0       200.0       200.0       200.0       200.0       200.0       200.0       200.0       200.0    
        200.0    
  16    202.0       201.7       201.4       201.1       200.9       200.7       200.6       200.4       200.3       200.3    
        200.2       200.2       200.1       200.1       200.1       200.1       200.1       200.1       200.1       200.0    
        200.0       200.0       200.0       200.0       200.0       200.0       200.0       200.0       200.0       200.0    
        200.0       200.0       200.0       200.0       200.0       200.0       200.0       200.0       200.0       200.0    
        200.0       200.0       200.0       200.0       200.0       200.0       200.0       200.0       200.0       200.0    
        200.0    
  17    202.0       201.7       201.4       201.1       200.9       200.7       200.6       200.4       200.3       200.3    
        200.2       200.2       200.1       200.1       200.1       200.1       200.1       200.1       200.0       200.0    
        200.0       200.0       200.0       200.0       200.0       200.0       200.0       200.0       200.0       200.0    
        200.0       200.0       200.0       200.0       200.0       200.0       200.0       200.0       200.0       200.0    
        200.0       200.0       200.0       200.0       200.0       200.0       200.0       200.0       200.0       200.0    
        200.0    
  18    202.0       201.7       201.4       201.1       200.9       200.7       200.6       200.4       200.3       200.3    
        200.2       200.2       200.1       200.1       200.1       200.1       200.1       200.1       200.0       200.0    
        200.0       200.0       200.0       200.0       200.0       200.0       200.0       200.0       200.0       200.0    
        200.0       200.0       200.0       200.0       200.0       200.0       200.0       200.0       200.0       200.0    
        200.0       200.0       200.0       200.0       200.0       200.0       200.0       200.0       200.0       200.0    
        200.0    
  19    202.0       201.7       201.4       201.1       200.9       200.7       200.5       200.4       200.3       200.2    
        200.2       200.2       200.1       200.1       200.1       200.1       200.1       200.1       200.0       200.0    
        200.0       200.0       200.0       200.0       200.0       200.0       200.0       200.0       200.0       200.0    
        200.0       200.0       200.0       200.0       200.0       200.0       200.0       200.0       200.0       200.0    
        200.0       200.0       200.0       200.0       200.0       200.0       200.0       200.0       200.0       200.0    
        200.0    
  20    202.0       201.7       201.4       201.1       200.9       200.7       200.5       200.4       200.3       200.2    
        200.2       200.1       200.1       200.1       200.1       200.1       200.1       200.1       200.0       200.0    
        200.0       200.0       200.0       200.0       200.0       200.0       200.0       200.0       200.0       200.0    
        200.0       200.0       200.0       200.0       200.0       200.0       200.0       200.0       200.0       200.0    
        200.0       200.0       200.0       200.0       200.0       200.0       200.0       200.0       200.0       200.0    
        200.0    
  21    202.0       201.7       201.4       201.1       200.9       200.7       200.5       200.4       200.3       200.2    
        200.2       200.1       200.1       200.1       200.1       200.1       200.1       200.1       200.0       200.0    
        200.0       200.0       200.0       200.0       200.0       200.0       200.0       200.0       200.0       200.0    
        200.0       200.0       200.0       200.0       200.0       200.0       200.0       200.0       200.0       200.0    
        200.0       200.0       200.0       200.0       200.0       200.0       200.0       200.0       200.0       200.0    
        200.0    
  22    202.0       201.7       201.4       201.1       200.8       200.7       200.5       200.4       200.3       200.2    
        200.2       200.1       200.1       200.1       200.1       200.1       200.1       200.0       200.0       200.0    
        200.0       200.0       200.0       200.0       200.0       200.0       200.0       200.0       200.0       200.0    
        200.0       200.0       200.0       200.0       200.0       200.0       200.0       200.0       200.0       200.0    
        200.0       200.0       200.0       200.0       200.0       200.0       200.0       200.0       200.0       200.0    
        200.0    
  23    202.0       201.7       201.3       201.1       200.8       200.6       200.5       200.4       200.3       200.2    
        200.2       200.1       200.1       200.1       200.1       200.1       200.1       200.0       200.0       200.0    
        200.0       200.0       200.0       200.0       200.0       200.0       200.0       200.0       200.0       200.0    
        200.0       200.0       200.0       200.0       200.0       200.0       200.0       200.0       200.0       200.0    
        200.0       200.0       200.0       200.0       200.0       200.0       200.0       200.0       200.0       200.0    
        200.0    
  24    202.0       201.6       201.3       201.0       200.8       200.6       200.5       200.3       200.3       200.2    
        200.2       200.1       200.1       200.1       200.1       200.1       200.0       200.0       200.0       200.0    
        200.0       200.0       200.0       200.0       200.0       200.0       200.0       200.0       200.0       200.0    
        200.0       200.0       200.0       200.0       200.0       200.0       200.0       200.0       200.0       200.0    
        200.0       200.0       200.0       200.0       200.0       200.0       200.0       200.0       200.0       200.0    
        200.0    
  25    202.0       201.6       201.3       201.0       200.8       200.6       200.4       200.3       200.2       200.2    
        200.1       200.1       200.1       200.1       200.1       200.1       200.0       200.0       200.0       200.0    
        200.0       200.0       200.0       200.0       200.0       200.0       200.0       200.0       200.0       200.0    
        200.0       200.0       200.0       200.0       200.0       200.0       200.0       200.0       200.0       200.0    
        200.0       200.0       200.0       200.0       200.0       200.0       200.0       200.0       200.0       200.0    
        200.0    
  26    202.0       201.6       201.3       201.0       200.7       200.6       200.4       200.3       200.2       200.2    
        200.1       200.1       200.1       200.1       200.1       200.0       200.0       200.0       200.0       200.0    
        200.0       200.0       200.0       200.0       200.0       200.0       200.0       200.0       200.0       200.0    
        200.0       200.0       200.0       200.0       200.0       200.0       200.0       200.0       200.0       200.0    
        200.0       200.0       200.0       200.0       200.0       200.0       200.0       200.0       200.0       200.0    
        200.0    
  27    202.0       201.6       201.3       201.0       200.7       200.5       200.4       200.3       200.2       200.2    
        200.1       200.1       200.1       200.1       200.1       200.0       200.0       200.0       200.0       200.0    
        200.0       200.0       200.0       200.0       200.0       200.0       200.0       200.0       200.0       200.0    
        200.0       200.0       200.0       200.0       200.0       200.0       200.0       200.0       200.0       200.0    
        200.0       200.0       200.0       200.0       200.0       200.0       200.0       200.0       200.0       200.0    
        200.0    
  28    202.0       201.6       201.2       200.9       200.7       200.5       200.4       200.3       200.2       200.1    
        200.1       200.1       200.1       200.1       200.0       200.0       200.0       200.0       200.0       200.0    
        200.0       200.0       200.0       200.0       200.0       200.0       200.0       200.0       200.0       200.0    
        200.0       200.0       200.0       200.0       200.0       200.0       200.0       200.0       200.0       200.0    
        200.0       200.0       200.0       200.0       200.0       200.0       200.0       200.0       200.0       200.0    
        200.0    
  29    202.0       201.6       201.2       200.9       200.7       200.5       200.4       200.3       200.2       200.1    
        200.1       200.1       200.1       200.1       200.0       200.0       200.0       200.0       200.0       200.0    
        200.0       200.0       200.0       200.0       200.0       200.0       200.0       200.0       200.0       200.0    
        200.0       200.0       200.0       200.0       200.0       200.0       200.0       200.0       200.0       200.0    
        200.0       200.0       200.0       200.0       200.0       200.0       200.0       200.0       200.0       200.0    
        200.0    
  30    202.0       201.6       201.2       200.9       200.7       200.5       200.4       200.3       200.2       200.1    
        200.1       200.1       200.1       200.1       200.0       200.0       200.0       200.0       200.0       200.0    
        200.0       200.0       200.0       200.0       200.0       200.0       200.0       200.0       200.0       200.0    
        200.0       200.0       200.0       200.0       200.0       200.0       200.0       200.0       200.0       200.0    
        200.0       200.0       200.0       200.0       200.0       200.0       200.0       200.0       200.0       200.0    
        200.0    
  31    202.0       201.6       201.2       200.9       200.7       200.5       200.4       200.3       200.2       200.1    
        200.1       200.1       200.1       200.0       200.0       200.0       200.0       200.0       200.0       200.0    
        200.0       200.0       200.0       200.0       200.0       200.0       200.0       200.0       200.0       200.0    
        200.0       200.0       200.0       200.0       200.0       200.0       200.0       200.0       200.0       200.0    
        200.0       200.0       200.0       200.0       200.0       200.0       200.0       200.0       200.0       200.0    
        200.0    
  32    202.0       201.6       201.2       200.9       200.7       200.5       200.4       200.3       200.2       200.1    
        200.1       200.1       200.1       200.1       200.0       200.0       200.0       200.0       200.0       200.0    
        200.0       200.0       200.0       200.0       200.0       200.0       200.0       200.0       200.0       200.0    
        200.0       200.0       200.0       200.0       200.0       200.0       200.0       200.0       200.0       200.0    
        200.0       200.0       200.0       200.0       200.0       200.0       200.0       200.0       200.0       200.0    
        200.0    
  33    202.0       201.6       201.3       201.0       200.7       200.5       200.4       200.3       200.2       200.1    
        200.1       200.1       200.1       200.1       200.0       200.0       200.0       200.0       200.0       200.0    
        200.0       200.0       200.0       200.0       200.0       200.0       200.0       200.0       200.0       200.0    
        200.0       200.0       200.0       200.0       200.0       200.0       200.0       200.0       200.0       200.0    
        200.0       200.0       200.0       200.0       200.0       200.0       200.0       200.0       200.0       200.0    
        200.0    
  34    202.0       201.6       201.3       201.0       200.7       200.6       200.4       200.3       200.2       200.2    
        200.1       200.1       200.1       200.1       200.0       200.0       200.0       200.0       200.0       200.0    
        200.0       200.0       200.0       200.0       200.0       200.0       200.0       200.0       200.0       200.0    
        200.0       200.0       200.0       200.0       200.0       200.0       200.0       200.0       200.0       200.0    
        200.0       200.0       200.0       200.0       200.0       200.0       200.0       200.0       200.0       200.0    
        200.0    
  35    202.0       201.6       201.3       201.0       200.8       200.6       200.4       200.3       200.2       200.2    
        200.1       200.1       200.1       200.1       200.0       200.0       200.0       200.0       200.0       200.0    
        200.0       200.0       200.0       200.0       200.0       200.0       200.0       200.0       200.0       200.0    
        200.0       200.0       200.0       200.0       200.0       200.0       200.0       200.0       200.0       200.0    
        200.0       200.0       200.0       200.0       200.0       200.0       200.0       200.0       200.0       200.0    
        200.0    
  36    202.0       201.6       201.3       201.0       200.8       200.6       200.5       200.3       200.2       200.2    
        200.1       200.1       200.1       200.1       200.1       200.0       200.0       200.0       200.0       200.0    
        200.0       200.0       200.0       200.0       200.0       200.0       200.0       200.0       200.0       200.0    
        200.0       200.0       200.0       200.0       200.0       200.0       200.0       200.0       200.0       200.0    
        200.0       200.0       200.0       200.0       200.0       200.0       200.0       200.0       200.0       200.0    
        200.0    
  37    202.0       201.7       201.3       201.1       200.8       200.6       200.5       200.4       200.3       200.2    
        200.1       200.1       200.1       200.1       200.1       200.0       200.0       200.0       200.0       200.0    
        200.0       200.0       200.0       200.0       200.0       200.0       200.0       200.0       200.0       200.0    
        200.0       200.0       200.0       200.0       200.0       200.0       200.0       200.0       200.0       200.0    
        200.0       200.0       200.0       200.0       200.0       200.0       200.0       200.0       200.0       200.0    
        200.0    
  38    202.0       201.7       201.3       201.1       200.8       200.6       200.5       200.4       200.3       200.2    
        200.2       200.1       200.1       200.1       200.1       200.0       200.0       200.0       200.0       200.0    
        200.0       200.0       200.0       200.0       200.0       200.0       200.0       200.0       200.0       200.0    
        200.0       200.0       200.0       200.0       200.0       200.0       200.0       200.0       200.0       200.0    
        200.0       200.0       200.0       200.0       200.0       200.0       200.0       200.0       200.0       200.0    
        200.0    
  39    202.0       201.7       201.4       201.1       200.8       200.7       200.5       200.4       200.3       200.2    
        200.2       200.1       200.1       200.1       200.1       200.0       200.0       200.0       200.0       200.0    
        200.0       200.0       200.0       200.0       200.0       200.0       200.0       200.0       200.0       200.0    
        200.0       200.0       200.0       200.0       200.0       200.0       200.0       200.0       200.0       200.0    
        200.0       200.0       200.0       200.0       200.0       200.0       200.0       200.0       200.0       200.0    
        200.0    
  40    202.0       201.7       201.4       201.1       200.9       200.7       200.5       200.4       200.3       200.2    
        200.2       200.1       200.1       200.1       200.1       200.0       200.0       200.0       200.0       200.0    
        200.0       200.0       200.0       200.0       200.0       200.0       200.0       200.0       200.0       200.0    
        200.0       200.0       200.0       200.0       200.0       200.0       200.0       200.0       200.0       200.0    
        200.0       200.0       200.0       200.0       200.0       200.0       200.0       200.0       200.0       200.0    
        200.0    
  41    202.0       201.7       201.4       201.1       200.9       200.7       200.5       200.4       200.3       200.2    
        200.2       200.1       200.1       200.1       200.1       200.0       200.0       200.0       200.0       200.0    
        200.0       200.0       200.0       200.0       200.0       200.0       200.0       200.0       200.0       200.0    
        200.0       200.0       200.0       200.0       200.0       200.0       200.0       200.0       200.0       200.0    
        200.0       200.0       200.0       200.0       200.0       200.0       200.0       200.0       200.0       200.0    
        200.0    
  42    202.0       201.7       201.4       201.1       200.8       200.7       200.5       200.4       200.3       200.2    
        200.2       200.1       200.1       200.1       200.1       200.0       200.0       200.0       200.0       200.0    
        200.0       200.0       200.0       200.0       200.0       200.0       200.0       200.0       200.0       200.0    
        200.0       200.0       200.0       200.0       200.0       200.0       200.0       200.0       200.0       200.0    
        200.0       200.0       200.0       200.0       200.0       200.0       200.0       200.0       200.0       200.0    
        200.0    
  43    202.0       201.7       201.3       201.1       200.8       200.6       200.5       200.4       200.3       200.2    
        200.1       200.1       200.1       200.1       200.1       200.0       200.0       200.0       200.0       200.0    
        200.0       200.0       200.0       200.0       200.0       200.0       200.0       200.0       200.0       200.0    
        200.0       200.0       200.0       200.0       200.0       200.0       200.0       200.0       200.0       200.0    
        200.0       200.0       200.0       200.0       200.0       200.0       200.0       200.0       200.0       200.0    
        200.0    
  44    202.0       201.7       201.3       201.1       200.8       200.6       200.5       200.3       200.3       200.2    
        200.1       200.1       200.1       200.1       200.0       200.0       200.0       200.0       200.0       200.0    
        200.0       200.0       200.0       200.0       200.0       200.0       200.0       200.0       200.0       200.0    
        200.0       200.0       200.0       200.0       200.0       200.0       200.0       200.0       200.0       200.0    
        200.0       200.0       200.0       200.0       200.0       200.0       200.0       200.0       200.0       200.0    
        200.0    
  45    202.0       201.6       201.3       201.0       200.8       200.6       200.4       200.3       200.2       200.2    
        200.1       200.1       200.1       200.1       200.0       200.0       200.0       200.0       200.0       200.0    
        200.0       200.0       200.0       200.0       200.0       200.0       200.0       200.0       200.0       200.0    
        200.0       200.0       200.0       200.0       200.0       200.0       200.0       200.0       200.0       200.0    
        200.0       200.0       200.0       200.0       200.0       200.0       200.0       200.0       200.0       200.0    
        200.0    
  46    202.0       201.6       201.3       201.0       200.8       200.6       200.4       200.3       200.2       200.2    
        200.1       200.1       200.1       200.1       200.0       200.0       200.0       200.0       200.0       200.0    
        200.0       200.0       200.0       200.0       200.0       200.0       200.0       200.0       200.0       200.0    
        200.0       200.0       200.0       200.0       200.0       200.0       200.0       200.0       200.0       200.0    
        200.0       200.0       200.0       200.0       200.0       200.0       200.0       200.0       200.0       200.0    
        200.0    
  47    202.0       201.6       201.3       201.0       200.7       200.5       200.4       200.3       200.2       200.1    
        200.1       200.1       200.1       200.0       200.0       200.0       200.0       200.0       200.0       200.0    
        200.0       200.0       200.0       200.0       200.0       200.0       200.0       200.0       200.0       200.0    
        200.0       200.0       200.0       200.0       200.0       200.0       200.0       200.0       200.0       200.0    
        200.0       200.0       200.0       200.0       200.0       200.0       200.0       200.0       200.0       200.0    
        200.0    
  48    202.0       201.6       201.2       200.9       200.7       200.5       200.4       200.3       200.2       200.1    
        200.1       200.1       200.1       200.0       200.0       200.0       200.0       200.0       200.0       200.0    
        200.0       200.0       200.0       200.0       200.0       200.0       200.0       200.0       200.0       200.0    
        200.0       200.0       200.0       200.0       200.0       200.0       200.0       200.0       200.0       200.0    
        200.0       200.0       200.0       200.0       200.0       200.0       200.0       200.0       200.0       200.0    
        200.0    
  49    202.0       201.6       201.2       200.9       200.7       200.5       200.3       200.2       200.2       200.1    
        200.1       200.1       200.0       200.0       200.0       200.0       200.0       200.0       200.0       200.0    
        200.0       200.0       200.0       200.0       200.0       200.0       200.0       200.0       200.0       200.0    
        200.0       200.0       200.0       200.0       200.0       200.0       200.0       200.0       200.0       200.0    
        200.0       200.0       200.0       200.0       200.0       200.0       200.0       200.0       200.0       200.0    
        200.0    
  50    202.0       201.6       201.2       200.9       200.7       200.5       200.3       200.2       200.2       200.1    
        200.1       200.1       200.0       200.0       200.0       200.0       200.0       200.0       200.0       200.0    
        200.0       200.0       200.0       200.0       200.0       200.0       200.0       200.0       200.0       200.0    
        200.0       200.0       200.0       200.0       200.0       200.0       200.0       200.0       200.0       200.0    
        200.0       200.0       200.0       200.0       200.0       200.0       200.0       200.0       200.0       200.0    
        200.0    
  51    202.0       201.6       201.2       200.9       200.6       200.5       200.3       200.2       200.2       200.1    
        200.1       200.1       200.0       200.0       200.0       200.0       200.0       200.0       200.0       200.0    
        200.0       200.0       200.0       200.0       200.0       200.0       200.0       200.0       200.0       200.0    
        200.0       200.0       200.0       200.0       200.0       200.0       200.0       200.0       200.0       200.0    
        200.0       200.0       200.0       200.0       200.0       200.0       200.0       200.0       200.0       200.0    
        200.0    

 HEAD WILL BE SAVED ON UNIT   11 AT END OF TIME STEP    2, STRESS PERIOD    1



         TIME SUMMARY AT END OF TIME STEP    2 IN STRESS PERIOD    1
                    SECONDS     MINUTES      HOURS       DAYS        YEARS
                    -----------------------------------------------------------
   TIME STEP LENGTH  17280.      288.00      4.8000     0.20000     5.47570E-04
 STRESS PERIOD TIME  34560.      576.00      9.6000     0.40000     1.09514E-03
         TOTAL TIME  34560.      576.00      9.6000     0.40000     1.09514E-03
1
 
 SOLVING FOR HEAD 
     6 ITERATIONS FOR TIME STEP   3 IN STRESS PERIOD    1

 MAXIMUM HEAD CHANGE FOR EACH ITERATION:

    HEAD CHANGE   HEAD CHANGE   HEAD CHANGE   HEAD CHANGE   HEAD CHANGE
  LAYER,ROW,COL LAYER,ROW,COL LAYER,ROW,COL LAYER,ROW,COL LAYER,ROW,COL
 ----------------------------------------------------------------------
     0.1161        0.9187E-01    0.7664E-01    0.4127E-01    0.3931E-02
  (  1, 51,  4) (  1, 49,  5) (  1,  4,  8) (  1,  1, 11) (  1, 16, 15)
    -0.1690E-03
  (  1,  7,  6)


 OUTPUT CONTROL FOR STRESS PERIOD    1   TIME STEP    3
    PRINT HEAD FOR ALL LAYERS
    SAVE HEAD FOR ALL LAYERS
1
              HEAD IN LAYER   1 AT END OF TIME STEP   3 IN STRESS PERIOD    1
  ---------------------------------------------------------------------------

            1           2           3           4           5           6           7           8           9          10
           11          12          13          14          15          16          17          18          19          20
           21          22          23          24          25          26          27          28          29          30
           31          32          33          34          35          36          37          38          39          40
           41          42          43          44          45          46          47          48          49          50
           51
 ........................................................................................................................
   1    202.0       201.8       201.6       201.5       201.3       201.1       201.0       200.9       200.7       200.6    
        200.6       200.5       200.4       200.4       200.3       200.3       200.2       200.2       200.2       200.1    
        200.1       200.1       200.1       200.0       200.0       200.0       200.0       200.0       200.0       200.0    
        200.0       200.0       200.0       200.0       200.0       200.0       200.0       200.0       200.0       200.0    
        200.0       200.0       200.0       200.0       200.0       200.0       200.0       200.0       200.0       200.0    
        200.0    
   2    202.0       201.8       201.6       201.5       201.3       201.1       201.0       200.9       200.7       200.6    
[...]
        201.2       201.2       201.2       201.1       201.0       201.0       200.9       200.8       200.7       200.6    
        200.6       200.5       200.5       200.4       200.4       200.4       200.3       200.3       200.3       200.3    
        200.2       200.2       200.2       200.2       200.1       200.1       200.1       200.1       200.0       200.0    
        200.0    
  25    202.0       201.9       201.9       201.8       201.8       201.7       201.7       201.6       201.6       201.5    
        201.5       201.4       201.4       201.4       201.4       201.3       201.3       201.3       201.3       201.3    
        201.2       201.2       201.1       201.1       201.0       200.9       200.9       200.8       200.7       200.6    
        200.6       200.5       200.5       200.4       200.4       200.3       200.3       200.3       200.3       200.2    
        200.2       200.2       200.2       200.2       200.1       200.1       200.1       200.1       200.0       200.0    
        200.0    
  26    202.0       201.9       201.9       201.8       201.8       201.7       201.7       201.6       201.6       201.5    
        201.5       201.4       201.4       201.4       201.4       201.3       201.3       201.3       201.3       201.2    
        201.2       201.2       201.1       201.1       201.0       200.9       200.9       200.8       200.7       200.6    
        200.5       200.5       200.4       200.4       200.4       200.3       200.3       200.3       200.3       200.2    
        200.2       200.2       200.2       200.2       200.1       200.1       200.1       200.1       200.0       200.0    
        200.0    
  27    202.0       201.9       201.9       201.8       201.8       201.7       201.7       201.6       201.6       201.5    
        201.5       201.4       201.4       201.4       201.4       201.3       201.3       201.3       201.3       201.2    
        201.2       201.2       201.1       201.1       201.0       200.9       200.8       200.8       200.7       200.6    
        200.5       200.5       200.4       200.4       200.4       200.3       200.3       200.3       200.3       200.2    
        200.2       200.2       200.2       200.2       200.1       200.1       200.1       200.1       200.0       200.0    
        200.0    
  28    202.0       201.9       201.9       201.8       201.8       201.7       201.7       201.6       201.5       201.5    
        201.5       201.4       201.4       201.4       201.3       201.3       201.3       201.3       201.3       201.2    
        201.2       201.2       201.1       201.1       201.0       200.9       200.8       200.7       200.7       200.6    
        200.5       200.5       200.4       200.4       200.3       200.3       200.3       200.3       200.2       200.2    
        200.2       200.2       200.2       200.1       200.1       200.1       200.1       200.1       200.0       200.0    
        200.0    
  29    202.0       201.9       201.9       201.8       201.8       201.7       201.7       201.6       201.5       201.5    
        201.5       201.4       201.4       201.4       201.3       201.3       201.3       201.3       201.2       201.2    
        201.2       201.1       201.1       201.0       201.0       200.9       200.8       200.7       200.6       200.6    
        200.5       200.5       200.4       200.4       200.3       200.3       200.3       200.3       200.2       200.2    
        200.2       200.2       200.2       200.1       200.1       200.1       200.1       200.1       200.0       200.0    
        200.0    
  30    202.0       201.9       201.9       201.8       201.8       201.7       201.6       201.6       201.5       201.5    
        201.4       201.4       201.4       201.4       201.3       201.3       201.3       201.3       201.2       201.2    
        201.2       201.1       201.1       201.0       201.0       200.9       200.8       200.7       200.6       200.6    
        200.5       200.4       200.4       200.4       200.3       200.3       200.3       200.3       200.2       200.2    
        200.2       200.2       200.2       200.1       200.1       200.1       200.1       200.1       200.0       200.0    
        200.0    
  31    202.0       201.9       201.9       201.8       201.8       201.7       201.6       201.6       201.5       201.5    
        201.4       201.4       201.4       201.3       201.3       201.3       201.3       201.2       201.2       201.2    
        201.2       201.1       201.1       201.0       200.9       200.9       200.8       200.7       200.6       200.5    
        200.5       200.4       200.4       200.3       200.3       200.3       200.3       200.2       200.2       200.2    
        200.2       200.2       200.1       200.1       200.1       200.1       200.1       200.1       200.0       200.0    
        200.0    
  32    202.0       201.9       201.9       201.8       201.8       201.7       201.6       201.6       201.5       201.5    
        201.4       201.4       201.4       201.3       201.3       201.3       201.3       201.2       201.2       201.2    
        201.1       201.1       201.0       201.0       200.9       200.8       200.8       200.7       200.6       200.5    
        200.5       200.4       200.4       200.3       200.3       200.3       200.3       200.2       200.2       200.2    
        200.2       200.2       200.1       200.1       200.1       200.1       200.1       200.1       200.0       200.0    
        200.0    
  33    202.0       201.9       201.9       201.8       201.8       201.7       201.6       201.6       201.5       201.5    
        201.4       201.4       201.4       201.3       201.3       201.3       201.3       201.2       201.2       201.2    
        201.1       201.1       201.0       201.0       200.9       200.8       200.7       200.7       200.6       200.5    
        200.4       200.4       200.4       200.3       200.3       200.3       200.2       200.2       200.2       200.2    
        200.2       200.2       200.1       200.1       200.1       200.1       200.1       200.1       200.0       200.0    
        200.0    
  34    202.0       201.9       201.9       201.8       201.8       201.7       201.6       201.6       201.5       201.5    
        201.4       201.4       201.4       201.3       201.3       201.3       201.2       201.2       201.2       201.2    
        201.1       201.1       201.0       201.0       200.9       200.8       200.7       200.6       200.6       200.5    
        200.4       200.4       200.3       200.3       200.3       200.3       200.2       200.2       200.2       200.2    
        200.2       200.1       200.1       200.1       200.1       200.1       200.1       200.1       200.0       200.0    
        200.0    
  35    202.0       201.9       201.9       201.8       201.8       201.7       201.6       201.6       201.5       201.5    
        201.4       201.4       201.4       201.3       201.3       201.3       201.2       201.2       201.2       201.1    
        201.1       201.1       201.0       200.9       200.9       200.8       200.7       200.6       200.6       200.5    
        200.4       200.4       200.3       200.3       200.3       200.2       200.2       200.2       200.2       200.2    
        200.2       200.1       200.1       200.1       200.1       200.1       200.1       200.1       200.0       200.0    
        200.0    
  36    202.0       201.9       201.9       201.8       201.8       201.7       201.6       201.6       201.5       201.5    
        201.4       201.4       201.3       201.3       201.3       201.3       201.2       201.2       201.2       201.1    
        201.1       201.1       201.0       200.9       200.9       200.8       200.7       200.6       200.5       200.5    
        200.4       200.4       200.3       200.3       200.3       200.2       200.2       200.2       200.2       200.2    
        200.2       200.1       200.1       200.1       200.1       200.1       200.1       200.0       200.0       200.0    
        200.0    
  37    202.0       201.9       201.9       201.8       201.8       201.7       201.6       201.6       201.5       201.5    
        201.4       201.4       201.3       201.3       201.3       201.3       201.2       201.2       201.2       201.1    
        201.1       201.0       201.0       200.9       200.9       200.8       200.7       200.6       200.5       200.5    
        200.4       200.4       200.3       200.3       200.3       200.2       200.2       200.2       200.2       200.2    
        200.1       200.1       200.1       200.1       200.1       200.1       200.1       200.0       200.0       200.0    
        200.0    
  38    202.0       201.9       201.9       201.8       201.8       201.7       201.6       201.6       201.5       201.5    
        201.4       201.4       201.3       201.3       201.3       201.2       201.2       201.2       201.2       201.1    
        201.1       201.0       201.0       200.9       200.8       200.8       200.7       200.6       200.5       200.5    
        200.4       200.3       200.3       200.3       200.2       200.2       200.2       200.2       200.2       200.2    
        200.1       200.1       200.1       200.1       200.1       200.1       200.1       200.0       200.0       200.0    
        200.0    
  39    202.0       201.9       201.9       201.8       201.8       201.7       201.6       201.6       201.5       201.5    
        201.4       201.4       201.3       201.3       201.3       201.2       201.2       201.2       201.2       201.1    
        201.1       201.0       201.0       200.9       200.8       200.8       200.7       200.6       200.5       200.4    
        200.4       200.3       200.3       200.3       200.2       200.2       200.2       200.2       200.2       200.2    
        200.1       200.1       200.1       200.1       200.1       200.1       200.1       200.0       200.0       200.0    
        200.0    
  40    202.0       201.9       201.9       201.8       201.8       201.7       201.6       201.6       201.5       201.5    
        201.4       201.4       201.3       201.3       201.3       201.2       201.2       201.2       201.1       201.1    
        201.1       201.0       201.0       200.9       200.8       200.7       200.7       200.6       200.5       200.4    
        200.4       200.3       200.3       200.3       200.2       200.2       200.2       200.2       200.2       200.2    
        200.1       200.1       200.1       200.1       200.1       200.1       200.1       200.0       200.0       200.0    
        200.0    
  41    202.0       201.9       201.9       201.8       201.8       201.7       201.6       201.6       201.5       201.5    
        201.4       201.4       201.3       201.3       201.3       201.2       201.2       201.2       201.1       201.1    
        201.1       201.0       201.0       200.9       200.8       200.7       200.7       200.6       200.5       200.4    
        200.4       200.3       200.3       200.3       200.2       200.2       200.2       200.2       200.2       200.2    
        200.1       200.1       200.1       200.1       200.1       200.1       200.1       200.0       200.0       200.0    
        200.0    
  42    202.0       201.9       201.9       201.8       201.8       201.7       201.6       201.6       201.5       201.5    
        201.4       201.4       201.3       201.3       201.3       201.2       201.2       201.2       201.1       201.1    
        201.1       201.0       200.9       200.9       200.8       200.7       200.6       200.6       200.5       200.4    
        200.4       200.3       200.3       200.3       200.2       200.2       200.2       200.2       200.2       200.1    
        200.1       200.1       200.1       200.1       200.1       200.1       200.1       200.0       200.0       200.0    
        200.0    
  43    202.0       201.9       201.9       201.8       201.8       201.7       201.6       201.6       201.5       201.5    
        201.4       201.4       201.3       201.3       201.3       201.2       201.2       201.2       201.1       201.1    
        201.0       201.0       200.9       200.9       200.8       200.7       200.6       200.6       200.5       200.4    
        200.4       200.3       200.3       200.3       200.2       200.2       200.2       200.2       200.2       200.1    
        200.1       200.1       200.1       200.1       200.1       200.1       200.1       200.0       200.0       200.0    
        200.0    
  44    202.0       201.9       201.9       201.8       201.8       201.7       201.6       201.6       201.5       201.5    
        201.4       201.4       201.3       201.3       201.3       201.2       201.2       201.2       201.1       201.1    
        201.0       201.0       200.9       200.9       200.8       200.7       200.6       200.5       200.5       200.4    
        200.4       200.3       200.3       200.2       200.2       200.2       200.2       200.2       200.2       200.1    
        200.1       200.1       200.1       200.1       200.1       200.1       200.1       200.0       200.0       200.0    
        200.0    
  45    202.0       201.9       201.9       201.8       201.8       201.7       201.6       201.6       201.5       201.5    
        201.4       201.4       201.3       201.3       201.3       201.2       201.2       201.2       201.1       201.1    
        201.0       201.0       200.9       200.8       200.8       200.7       200.6       200.5       200.5       200.4    
        200.4       200.3       200.3       200.2       200.2       200.2       200.2       200.2       200.2       200.1    
        200.1       200.1       200.1       200.1       200.1       200.1       200.1       200.0       200.0       200.0    
        200.0    
  46    202.0       201.9       201.9       201.8       201.8       201.7       201.6       201.6       201.5       201.5    
        201.4       201.4       201.3       201.3       201.3       201.2       201.2       201.2       201.1       201.1    
        201.0       201.0       200.9       200.8       200.8       200.7       200.6       200.5       200.5       200.4    
        200.3       200.3       200.3       200.2       200.2       200.2       200.2       200.2       200.2       200.1    
        200.1       200.1       200.1       200.1       200.1       200.1       200.1       200.0       200.0       200.0    
        200.0    
  47    202.0       201.9       201.9       201.8       201.8       201.7       201.6       201.6       201.5       201.5    
        201.4       201.4       201.3       201.3       201.3       201.2       201.2       201.1       201.1       201.1    
        201.0       201.0       200.9       200.8       200.8       200.7       200.6       200.5       200.5       200.4    
        200.3       200.3       200.3       200.2       200.2       200.2       200.2       200.2       200.2       200.1    
        200.1       200.1       200.1       200.1       200.1       200.1       200.1       200.0       200.0       200.0    
        200.0    
  48    202.0       201.9       201.9       201.8       201.8       201.7       201.6       201.6       201.5       201.5    
        201.4       201.4       201.3       201.3       201.3       201.2       201.2       201.1       201.1       201.1    
        201.0       201.0       200.9       200.8       200.7       200.7       200.6       200.5       200.4       200.4    
        200.3       200.3       200.3       200.2       200.2       200.2       200.2       200.2       200.2       200.1    
        200.1       200.1       200.1       200.1       200.1       200.1       200.1       200.0       200.0       200.0    
        200.0    
  49    202.0       201.9       201.9       201.8       201.8       201.7       201.6       201.6       201.5       201.5    
        201.4       201.4       201.3       201.3       201.3       201.2       201.2       201.1       201.1       201.1    
        201.0       200.9       200.9       200.8       200.7       200.7       200.6       200.5       200.4       200.4    
        200.3       200.3       200.3       200.2       200.2       200.2       200.2       200.2       200.1       200.1    
        200.1       200.1       200.1       200.1       200.1       200.1       200.1       200.0       200.0       200.0    
        200.0    
  50    202.0       201.9       201.9       201.8       201.8       201.7       201.7       201.6       201.5       201.5    
        201.4       201.4       201.3       201.3       201.2       201.2       201.2       201.1       201.1       201.0    
        201.0       200.9       200.9       200.8       200.7       200.7       200.6       200.5       200.4       200.4    
        200.3       200.3       200.3       200.2       200.2       200.2       200.2       200.2       200.1       200.1    
        200.1       200.1       200.1       200.1       200.1       200.1       200.1       200.0       200.0       200.0    
        200.0    
  51    202.0       201.9       201.9       201.8       201.8       201.7       201.7       201.6       201.5       201.5    
        201.4       201.4       201.3       201.3       201.2       201.2       201.2       201.1       201.1       201.0    
        201.0       200.9       200.9       200.8       200.7       200.7       200.6       200.5       200.4       200.4    
        200.3       200.3       200.3       200.2       200.2       200.2       200.2       200.2       200.1       200.1    
        200.1       200.1       200.1       200.1       200.1       200.1       200.1       200.0       200.0       200.0    
        200.0    

 HEAD WILL BE SAVED ON UNIT   11 AT END OF TIME STEP   50, STRESS PERIOD    1
1
  VOLUMETRIC BUDGET FOR ENTIRE MODEL AT END OF TIME STEP   50, STRESS PERIOD   1
  ------------------------------------------------------------------------------

     CUMULATIVE VOLUMES      L**3       RATES FOR THIS TIME STEP      L**3/T
     ------------------                 ------------------------

           IN:                                      IN:
           ---                                      ---
             STORAGE =           0.0000               STORAGE =           0.0000
       CONSTANT HEAD =          96.6855         CONSTANT HEAD =           4.6364

            TOTAL IN =          96.6855              TOTAL IN =           4.6364

          OUT:                                     OUT:
          ----                                     ----
             STORAGE =          87.2981               STORAGE =           2.3765
       CONSTANT HEAD =           9.4176         CONSTANT HEAD =           2.2609

           TOTAL OUT =          96.7157             TOTAL OUT =           4.6373

            IN - OUT =      -3.0243E-02              IN - OUT =      -9.4891E-04

 PERCENT DISCREPANCY =          -0.03     PERCENT DISCREPANCY =          -0.02






         TIME SUMMARY AT END OF TIME STEP   50 IN STRESS PERIOD    1
                    SECONDS     MINUTES      HOURS       DAYS        YEARS
                    -----------------------------------------------------------
   TIME STEP LENGTH  17280.      288.00      4.8000     0.20000     5.47570E-04
 STRESS PERIOD TIME 8.64000E+05  14400.      240.00      10.000     2.73785E-02
         TOTAL TIME 8.64000E+05  14400.      240.00      10.000     2.73785E-02
1

 Run end date and time (yyyy/mm/dd hh:mm:ss): 2021/07/19 14:29:24
 Elapsed run time:  0.289 Seconds

